data_S2
_audit_creation_date              2025-08-12
_audit_creation_method            'Materials Studio'
_symmetry_space_group_name_H-M    'P1'
_symmetry_Int_Tables_number       1
_symmetry_cell_setting            triclinic
loop_
_symmetry_equiv_pos_as_xyz
  x,y,z
_cell_length_a                    30.0
_cell_length_b                    30.0
_cell_length_c                    30.0
_cell_angle_alpha                 90.0000
_cell_angle_beta                  90.0000
_cell_angle_gamma                 90.0000
loop_
_atom_site_label
_atom_site_type_symbol
_atom_site_fract_x
_atom_site_fract_y
_atom_site_fract_z
_atom_site_U_iso_or_equiv
_atom_site_adp_type
_atom_site_occupancy
S1     S     0.67276   0.38092   0.21227   0.00000  Uiso   1.00
S2     S     0.68607   0.44411   0.20851   0.00000  Uiso   1.00
S3     S     0.23012   0.30747   0.43645   0.00000  Uiso   1.00
S4     S     0.27524   0.34642   0.46157   0.00000  Uiso   1.00
S5     S     0.27599   0.21016   0.68916   0.00000  Uiso   1.00
S6     S     0.22637   0.24889   0.67427   0.00000  Uiso   1.00
S7     S     0.99212   0.77465   0.40668   0.00000  Uiso   1.00
S8     S     0.95384   0.81904   0.43404   0.00000  Uiso   1.00
S9     S     0.04062   0.58822   0.74565   0.00000  Uiso   1.00
S10    S     0.06804   0.64680   0.74562   0.00000  Uiso   1.00
S11    S     0.96883   0.57687   0.88855   0.00000  Uiso   1.00
S12    S     1.00281   0.62815   0.86855   0.00000  Uiso   1.00
S13    S     0.90986   0.94690   0.29746   0.00000  Uiso   1.00
S14    S     0.92658   1.00635   0.27821   0.00000  Uiso   1.00
S15    S     0.40281   0.06510   0.58649   0.00000  Uiso   1.00
S16    S     0.40220   0.00255   0.60293   0.00000  Uiso   1.00
S17    S     0.39413   0.56315   0.78488   0.00000  Uiso   1.00
S18    S     0.44666   0.52622   0.77704   0.00000  Uiso   1.00
S19    S     0.12898   1.00815   0.18525   0.00000  Uiso   1.00
S20    S     0.17586   0.97336   0.21311   0.00000  Uiso   1.00
S21    S     0.28120   0.42998   0.58784   0.00000  Uiso   1.00
S22    S     0.22723   0.43618   0.55274   0.00000  Uiso   1.00
S23    S     0.74785   0.84357   0.56075   0.00000  Uiso   1.00
S24    S     0.69895   0.88274   0.54466   0.00000  Uiso   1.00
S25    S     0.45722   0.90592   0.26502   0.00000  Uiso   1.00
S26    S     0.41067   0.86132   0.27023   0.00000  Uiso   1.00
S27    S     0.86721   0.54236   0.71939   0.00000  Uiso   1.00
S28    S     0.81356   0.55340   0.68498   0.00000  Uiso   1.00
S29    S     0.71879   0.12801   0.96878   0.00000  Uiso   1.00
S30    S     0.67113   0.14819   1.00758   0.00000  Uiso   1.00
S31    S     0.38562   0.42927   0.50363   0.00000  Uiso   1.00
S32    S     0.41543   0.43889   0.56022   0.00000  Uiso   1.00
S33    S     0.57272   0.54580   0.32814   0.00000  Uiso   1.00
S34    S     0.59586   0.60267   0.30778   0.00000  Uiso   1.00
S35    S     0.23271   0.63804   0.30238   0.00000  Uiso   1.00
S36    S     0.20901   0.64302   0.24240   0.00000  Uiso   1.00
S37    S     0.81266   0.98874   0.63430   0.00000  Uiso   1.00
S38    S     0.79489   0.93494   0.66551   0.00000  Uiso   1.00
S39    S     0.54183   0.18880   0.88095   0.00000  Uiso   1.00
S40    S     0.56962   0.13801   0.90980   0.00000  Uiso   1.00
S41    S     0.97925   0.24540   0.52383   0.00000  Uiso   1.00
S42    S     1.02037   0.21681   0.56478   0.00000  Uiso   1.00
S43    S     0.02589   0.89293   1.00473   0.00000  Uiso   1.00
S44    S     0.07547   0.91746   0.97121   0.00000  Uiso   1.00
S45    S     0.37195   0.77909   0.13292   0.00000  Uiso   1.00
S46    S     0.34258   0.73013   0.16332   0.00000  Uiso   1.00
S47    S     0.74321   0.59830   0.96036   0.00000  Uiso   1.00
S48    S     0.73593   0.56262   0.90690   0.00000  Uiso   1.00
S49    S     0.26243   0.97004   0.82368   0.00000  Uiso   1.00
S50    S     0.21220   0.99702   0.85423   0.00000  Uiso   1.00
S51    S    -0.00776   0.85688   0.24349   0.00000  Uiso   1.00
S52    S     0.04429   0.89220   0.25858   0.00000  Uiso   1.00
Mo1    Mo    0.87460   0.76549   0.77767   0.00000  Uiso   1.00
Mo2    Mo    0.96874   0.79308   0.75621   0.00000  Uiso   1.00
Mo3    Mo    0.93314   0.71758   0.81189   0.00000  Uiso   1.00
O4     O     0.90650   0.79688   0.73429   0.00000  Uiso   1.00
O5     O     0.89111   0.70175   0.76895   0.00000  Uiso   1.00
O6     O     0.98558   0.73587   0.78484   0.00000  Uiso   1.00
O7     O     0.83792   0.79565   0.81815   0.00000  Uiso   1.00
O8     O     0.81352   0.75772   0.79976   0.00000  Uiso   1.00
O9     O     0.97831   0.83714   0.79072   0.00000  Uiso   1.00
O10    O     1.00293   0.79438   0.71035   0.00000  Uiso   1.00
O11    O     0.91546   0.74604   0.86811   0.00000  Uiso   1.00
O12    O     0.93225   0.70111   0.87348   0.00000  Uiso   1.00
loop_
_geom_bond_atom_site_label_1
_geom_bond_atom_site_label_2
_geom_bond_distance
_geom_bond_site_symmetry_2
_ccdc_geom_bond_type
S1     S2      1.936   .     S
S3     S4      1.936   .     S
S5     S6      1.936   .     S
S7     S8      1.936   .     S
S9     S10     1.936   .     S
S11    S12     1.936   .     S
S13    S14     1.936   .     S
S15    S16     1.936   .     S
S17    S18     1.936   .     S
S19    S20     1.936   .     S
S21    S22     1.936   .     S
S23    S24     1.936   .     S
S25    S26     1.936   .     S
S27    S28     1.936   .     S
S29    S30     1.936   .     S
S31    S32     1.936   .     S
S33    S34     1.936   .     S
S35    S36     1.936   .     S
S37    S38     1.936   .     S
S39    S40     1.936   .     S
S41    S42     1.936   .     S
S43    S44     1.936   .     S
S45    S46     1.936   .     S
S47    S48     1.936   .     S
S49    S50     1.936   .     S
S51    S52     1.936   .     S
Mo1    Mo2     3.006   .     S
Mo1    Mo3     2.485   .     S
Mo1    O4      1.866   .     S
Mo1    O5      1.988   .     S
Mo1    O7      1.868   .     S
Mo1    O8      1.958   .     S
Mo2    Mo3     3.003   .     S
Mo2    O4      1.978   .     S
Mo2    O6      1.980   .     S
Mo2    O9      1.699   .     S
Mo2    O10     1.713   .     S
Mo3    O5      1.860   .     S
Mo3    O6      1.849   .     S
Mo3    O11     1.959   .     S
Mo3    O12     1.908   .     S
O7     O8      1.458   .     D
O11    O12     1.444   .     D
